Version 4
SHEET 1 936 680
WIRE 432 112 288 112
WIRE 288 128 288 112
WIRE 288 128 208 128
WIRE 144 144 -112 144
WIRE -112 160 -112 144
WIRE 240 160 208 160
WIRE 240 224 240 160
WIRE 432 224 432 192
WIRE 432 224 240 224
WIRE 240 320 240 224
WIRE 480 320 240 320
WIRE 672 320 560 320
WIRE 832 320 672 320
WIRE 240 368 240 320
WIRE 672 400 672 384
WIRE 672 400 336 400
WIRE 832 400 672 400
WIRE 240 480 240 432
WIRE 336 480 336 400
WIRE 336 480 240 480
WIRE 240 512 240 480
FLAG 240 512 0
FLAG -112 240 0
SYMBOL AutoGenerated\\irf135b203 176 144 R0
SYMATTR InstName U1
SYMBOL voltage 432 96 R0
WINDOW 123 0 0 Left 0
WINDOW 39 0 0 Left 0
SYMATTR InstName V1
SYMATTR Value PULSE(0 12 0 10n 10n 5u 10u)
SYMBOL voltage -112 144 R0
WINDOW 123 0 0 Left 0
WINDOW 39 0 0 Left 0
SYMATTR InstName V2
SYMATTR Value 115
SYMBOL diode 256 432 R180
WINDOW 0 24 64 Left 2
WINDOW 3 24 0 Left 2
SYMATTR InstName D1
SYMATTR Value PU6DBH
SYMBOL ind 464 336 R270
WINDOW 0 32 56 VTop 2
WINDOW 3 5 56 VBottom 2
SYMATTR InstName L1
SYMATTR Value 400µ
SYMBOL cap 656 320 R0
SYMATTR InstName C1
SYMATTR Value 1m
SYMBOL res 816 304 R0
SYMATTR InstName R2
SYMATTR Value 10
TEXT -776 -128 Left 2 !*******************************************************\n* Taiwan Semiconductor\n* PU6DBH\n* 6A, 200V Ultrafast Surface Mount Rectifier\n* Date: 2021-5-14\n*******************************************************\n.MODEL PU6DBH D\n+ IS=55.739E-9\n+ N=1.5485\n+ RS=3.7225E-3\n+ IKF=1.7119\n+ CJO=211.50E-12\n+ M=.50819\n+ VJ=1.1629\n+ ISR=10.010E-21\n+ NR=4.9950\n+ BV=200\n+ IBV=2E-6\n+ TT=56.725E-9\n*******************************************************
TEXT 720 -152 Left 2 !.tran 0 20.1m 20m
